 ****** HSPICE -- H-2013.03-SP2 64-BIT (Aug 26 2013) win64 ******               
  Copyright (C) 2013 Synopsys, Inc. All Rights Reserved.                        
  Unpublished-rights reserved under US copyright laws.
  This program is protected by law and is subject to the
  terms and conditions of the license agreement from Synopsys.
  Use of this program is your acceptance to be bound by the
  license agreement. HSPICE is the trademark of Synopsys, Inc.
  Input File: mul (3).sp                                                        
  Command line options: -i mul (3).sp -o mul (3).lis
  lic:  
  lic: FLEXlm: v10.9.8 
  lic: USER:   mahboobe             HOSTNAME: DESKTOP-7DPFJG9 
  lic: HOSTID: "240a642344ab 160a642344ab 74d02be55204 240a642344aa 08002700b885
 " PID:      5236 
  lic: Using FLEXlm license file: 
  lic: C:\hspice_lic\synopsys.dat 
  lic: Checkout 1 hspice 
  lic: License/Maintenance for hspice will expire on 31-dec-2019/2019.12 
  lic: NODE LOCKED license on hostid "240a642344ab 160a642344ab 74d02be55204 240
 a642344aa 08002700b88
  lic:   
 Init: read install configuration file: C:\synopsys\Hspice_H-2013.03-SP2\meta.cfg
1****** HSPICE -- H-2013.03-SP2 64-BIT (Aug 26 2013) win64 ******               
 ******  
 .include 'mosistsmc180.lib'

  ******  circuit name directory
 circuit number to circuit name directory
   number circuitname                     definition         multiplier
        0 main circuit
        1 xmultiplier.                    multiplier         1.00 
        2 xmultiplier.xand0.              and                1.00 
        3 xmultiplier.xand1.              and                1.00 
        4 xmultiplier.xand2.              and                1.00 
        5 xmultiplier.xand3.              and                1.00 
        6 xmultiplier.xand4.              and                1.00 
        7 xmultiplier.xand5.              and                1.00 
        8 xmultiplier.xand6.              and                1.00 
        9 xmultiplier.xand7.              and                1.00 
       10 xmultiplier.xand8.              and                1.00 
       11 xmultiplier.xand9.              and                1.00 
       12 xmultiplier.xand10.             and                1.00 
       13 xmultiplier.xand11.             and                1.00 
       14 xmultiplier.xand12.             and                1.00 
       15 xmultiplier.xand13.             and                1.00 
       16 xmultiplier.xand14.             and                1.00 
       17 xmultiplier.xand15.             and                1.00 
       18 xmultiplier.xand16.             and                1.00 
       19 xmultiplier.xand17.             and                1.00 
       20 xmultiplier.xand18.             and                1.00 
       21 xmultiplier.xand19.             and                1.00 
       22 xmultiplier.xand20.             and                1.00 
       23 xmultiplier.xand21.             and                1.00 
       24 xmultiplier.xand22.             and                1.00 
       25 xmultiplier.xand23.             and                1.00 
       26 xmultiplier.xand24.             and                1.00 
       27 xmultiplier.xfa1.               fa                 1.00 
       28 xmultiplier.xfa2.               fa                 1.00 
       29 xmultiplier.xfa3.               fa                 1.00 
       30 xmultiplier.xfa4.               fa                 1.00 
       31 xmultiplier.xfa5.               fa                 1.00 
       32 xmultiplier.xfa6.               fa                 1.00 
       33 xmultiplier.xfa7.               fa                 1.00 
       34 xmultiplier.xfa8.               fa                 1.00 
       35 xmultiplier.xfa9.               fa                 1.00 
       36 xmultiplier.xfa10.              fa                 1.00 
       37 xmultiplier.xfa11.              fa                 1.00 
       38 xmultiplier.xfa12.              fa                 1.00 
       39 xmultiplier.xfa13.              fa                 1.00 
       40 xmultiplier.xfa14.              fa                 1.00 
       41 xmultiplier.xfa15.              fa                 1.00 
       42 xmultiplier.xfa16.              fa                 1.00 
       43 xmultiplier.xfa17.              fa                 1.00 
       44 xmultiplier.xfa18.              fa                 1.00 
       45 xmultiplier.xfa19.              fa                 1.00 
       46 xmultiplier.xfa20.              fa                 1.00 
1****** HSPICE -- H-2013.03-SP2 64-BIT (Aug 26 2013) win64 ******               
 ******  
 .include 'mosistsmc180.lib'

  ******  mos   model parameters tnom=  25.000 temp=  25.000 *****
 ***************************************************************************
 ***        model parameters  model name:   0:nmos     model type:nmos   ***
 ***************************************************************************

   *** general parameters ***
    deriv=   0.           

   ***  level 49  model parameters  ***

       hspver=    2006.03               level=         49         
      version=        3.1            paramchk=          0         
       apwarn=          1                lite=          0         
       vgslim=          0             binUnit=          1         
       capMod=          2               xpart=        0.5         
       mobMod=          1              nqsMod=          0         
       stiMod=          0                 elm=          5         
     sfvtflag=          0                 tox=   4.1e-009 meter   
           xj=     1e-007 meter       binflag=          0         
         lmin=          0 meter          lmax=          0 meter   
         wmin=          0 meter          wmax=          0 meter   
         lref=          0 meter          wref=          0 meter   
         lint=1.25702e-008 meter          wint=9.45864e-009 meter   
        lmult=          1               wmult=          1         
           ll=          0                 lln=          1         
           lw=          0                 lwn=          1         
          lwl=          0                  wl=          0         
          wln=          1                  ww=          0         
          wwn=          1                 wwl=          0         
          dwg=-1.20462e-009 m/V             dwb=9.66422e-009 m/V^1/2 
           xl=    -2e-008                  xw=    -1e-008         
           a0=     1.9002                 ags=   0.412538 V^-1    
           b0=-1.06835e-008 meter            b1=    -1e-007 meter   
         keta=0.000250589 V^-1           voff= -0.0946268 V       
        ngate=          0 cm^-3           vbx=          0 V       
          vbm=         -3 V                xt=  1.55e-007 meter   
         vth0=   0.383282 V               nch=2.3549e+017 cm^-3   
         nsub=     6e+016 cm^-3           nlx=1.55647e-007 meter   
       gamma1=          0 V^-1/2       gamma2=          0 V^-1/2  
           k1=   0.591571 V^1/2            k2=  0.0024327         
           k3=      0.001                 k3b=    2.88171 V^-1    
           w0=     1e-007 meter          dvt0=    1.86718         
         dvt1=   0.507095                dvt2= -0.0135063 V^-1    
        dvt0w=          0 meter^-1      dvt1w=          0 meter^-1
        dvt2w=          0 V^-1           dsub= 0.00275603         
         eta0= 0.00137586                etab= 0.00013766 V^-1    
           u0=    275.556 cm^2/V/sec         ua=-1.15024e-009 m/V     
           ub=2.01415e-018 (m/V)^2          uc=4.21711e-011 V^-1    
         vsat=     100227 m/sec            a1= 0.00043771 v^-1    
           a2=   0.958432               delta=       0.01 V       
         rdsw=        105 ohm-um         prwg=        0.5 V^-1    
         prwb=       -0.2 V^-1/2           wr=          1         
         pclm=    0.86502             pdiblc1=   0.238815         
      pdiblc2= 0.00395731             pdiblcb=       -0.1 V^-1    
       pscbe1=6.14039e+010 V/m          pscbe2=5.82299e-008 V/m     
        drout=   0.728508                pvag=   0.171092         
      nfactor=    2.37614                cdsc=    0.00024 f/m^2   
        cdscb=          0 f/V/m^2       cdscd=          0 f/V/m^2 
          cit=          0 f/m^2        alpha0=          0 m/V     
        beta0=         30 V               dlc=1.25702e-008 meter   
          dwc=9.45864e-009 meter           clc=     1e-007 meter   
          cle=        0.6                cgso=  7.32e-010 f/m     
         cgdo=  7.32e-010 f/m            cgbo=     1e-012 f/m     
         cgsl=          0 f/m            cgdl=          0 f/m     
       ckappa=        0.6                  cf=          0 f/m     
         tnom=     300.15 K               kt1=      -0.11 V       
         kt1l=          0                 kt2=      0.022         
          ute=       -1.5                 ua1=  4.31e-009 m/V     
          ub1= -7.61e-018 (m/V)^2         uc1=  -5.6e-011 m/V^2   
           at=      33000 m/s             prt=          0         
          using Berkeley noise model       noiMod=          1         
         noia=     1e+020                noib=      50000         
         noic=  -1.4e-012                  em=   4.1e+007         
           ef=          1                  af=          1         
           kf=          0              gdsnoi=-1.23457e-029         
          using Hspice diodes            using ACM 
          acm=         0                 hdif=         0 meter    
         ldif=         0 meter             js=         0 amp/m^2  
          jsw=         0 amp/m            xti=         0          
            n=         1                   cj=0.000977546 f/m^2    
           mj=  0.361111                   pb=  0.722413 V        
         cjsw=2.24481e-010 f/m             mjsw=       0.1          
          php=  0.722413 V               pbsw (not used)           
       cjgate=2.24481e-010 f/m            cjswg (not used)           
        mjswg (not used)                 pbswg (not used)           
        lketa=-0.00947318               wketa= 0.00102998         
        pketa= 0.00132978               pvth0= -0.0014684         
          pk2= 0.00085306               peta0=     0.0001         
          pu0=  -0.203478                 pua=-2.37215e-011         
          pub=4.74506e-025               pvsat=    901.673         
        prdsw=  -0.688879         
 ***************************************************************************
 ***        model parameters  model name:   0:pmos     model type:pmos   ***
 ***************************************************************************

   *** general parameters ***
    deriv=   0.           

   ***  level 49  model parameters  ***

       hspver=    2006.03               level=         49         
      version=        3.1            paramchk=          0         
       apwarn=          1                lite=          0         
       vgslim=          0             binUnit=          1         
       capMod=          2               xpart=        0.5         
       mobMod=          1              nqsMod=          0         
       stiMod=          0                 elm=          5         
     sfvtflag=          0                 tox=   4.1e-009 meter   
           xj=     1e-007 meter       binflag=          0         
         lmin=          0 meter          lmax=          0 meter   
         wmin=          0 meter          wmax=          0 meter   
         lref=          0 meter          wref=          0 meter   
         lint=2.55821e-008 meter          wint=          0 meter   
        lmult=          1               wmult=          1         
           ll=          0                 lln=          1         
           lw=          0                 lwn=          1         
          lwl=          0                  wl=          0         
          wln=          1                  ww=          0         
          wwn=          1                 wwl=          0         
          dwg=-2.00413e-008 m/V             dwb=1.03982e-008 m/V^1/2 
           xl=    -2e-008                  xw=    -1e-008         
           a0=    1.64232                 ags=   0.393488 V^-1    
           b0=1.14955e-006 meter            b1=3.50869e-006 meter   
         keta=  0.0146913 V^-1           voff=  -0.102545 V       
        ngate=          0 cm^-3           vbx=          0 V       
          vbm=         -3 V                xt=  1.55e-007 meter   
         vth0=  -0.407799 V               nch=4.1589e+017 cm^-3   
         nsub=     6e+016 cm^-3           nlx=7.08582e-008 meter   
       gamma1=          0 V^-1/2       gamma2=          0 V^-1/2  
           k1=   0.581505 V^1/2            k2=  0.0273445         
           k3=          0                 k3b=    10.7067 V^-1    
           w0=     1e-006 meter          dvt0=   0.542739         
         dvt1=   0.349376                dvt2=    0.08174 V^-1    
        dvt0w=          0 meter^-1      dvt1w=          0 meter^-1
        dvt2w=          0 V^-1           dsub=    0.63027         
         eta0=  0.0276906                etab= -0.0693376 V^-1    
           u0=    116.609 cm^2/V/sec         ua=1.5639e-009 m/V     
           ub=     1e-021 (m/V)^2          uc=    -1e-010 V^-1    
         vsat=     182617 m/sec            a1=   0.474966 v^-1    
           a2=    0.31182               delta=       0.01 V       
         rdsw=    309.922 ohm-um         prwg=        0.5 V^-1    
         prwb=       -0.5 V^-1/2           wr=          1         
         pclm=    1.32459             pdiblc1=          0         
      pdiblc2=  0.0136588             pdiblcb=     -0.001 V^-1    
       pscbe1=1.00528e+010 V/m          pscbe2=2.90349e-009 V/m     
        drout=0.000778026                pvag=    3.20271         
      nfactor=    1.92388                cdsc=    0.00024 f/m^2   
        cdscb=          0 f/V/m^2       cdscd=          0 f/V/m^2 
          cit=          0 f/m^2        alpha0=          0 m/V     
        beta0=         30 V               dlc=2.55821e-008 meter   
          dwc=          0 meter           clc=     1e-007 meter   
          cle=        0.6                cgso=  6.57e-010 f/m     
         cgdo=  6.57e-010 f/m            cgbo=     1e-012 f/m     
         cgsl=          0 f/m            cgdl=          0 f/m     
       ckappa=        0.6                  cf=          0 f/m     
         tnom=     300.15 K               kt1=      -0.11 V       
         kt1l=          0                 kt2=      0.022         
          ute=       -1.5                 ua1=  4.31e-009 m/V     
          ub1= -7.61e-018 (m/V)^2         uc1=  -5.6e-011 m/V^2   
           at=      33000 m/s             prt=          0         
          using Berkeley noise model       noiMod=          1         
         noia=   9.9e+018                noib=       2400         
         noic=   1.4e-012                  em=   4.1e+007         
           ef=          1                  af=          1         
           kf=          0              gdsnoi=-1.23457e-029         
          using Hspice diodes            using ACM 
          acm=         0                 hdif=         0 meter    
         ldif=         0 meter             js=         0 amp/m^2  
          jsw=         0 amp/m            xti=         0          
            n=         1                   cj=0.00118422 f/m^2    
           mj=  0.413121                   pb=  0.855252 V        
         cjsw=1.69663e-010 f/m             mjsw=  0.242466          
          php=  0.855252 V               pbsw (not used)           
       cjgate=1.69663e-010 f/m            cjswg (not used)           
        mjswg (not used)                 pbswg (not used)           
        lketa= 0.00587759               wketa= 0.00249485         
        pketa=  0.0022305               pvth0=0.000841403         
          pk2= 0.00147551               peta0=     0.0001         
          pu0=   -1.84325                 pua=-6.92569e-011         
          pub=     1e-021               pvsat=         50         
        prdsw=    9.92224         
  **info** (mul (3).sp:132) DC voltage reset to initial transient source value              in source        0:va2                 new dc=  0.1800D+01
 

 Warning: Pd = 0 is less than Weff = 3.31083e-007.
 Model:    0:nmos
 Element: mn1
 W = 3.5e-007, L = 1.6e-007

  
1****** HSPICE -- H-2013.03-SP2 64-BIT (Aug 26 2013) win64 ******               
 ******  
 .include 'mosistsmc180.lib'

  ******  element node table
                                                                                      
 0                va0              va1              va2              va3              
                  va4              vdd              vx0              vx1              
                  vx2              vx3              vx4              2:mn2:s          
                  2:mn2:b          2:mn3:s          2:mn3:b          3:mn2:s          
                  3:mn2:b          3:mn3:s          3:mn3:b          4:mn2:s          
                  4:mn2:b          4:mn3:s          4:mn3:b          5:mn2:s          
                  5:mn2:b          5:mn3:s          5:mn3:b          6:mn2:s          
                  6:mn2:b          6:mn3:s          6:mn3:b          7:mn2:s          
                  7:mn2:b          7:mn3:s          7:mn3:b          8:mn2:s          
                  8:mn2:b          8:mn3:s          8:mn3:b          9:mn2:s          
                  9:mn2:b          9:mn3:s          9:mn3:b          10:mn2:s         
                  10:mn2:b         10:mn3:s         10:mn3:b         11:mn2:s         
                  11:mn2:b         11:mn3:s         11:mn3:b         12:mn2:s         
                  12:mn2:b         12:mn3:s         12:mn3:b         13:mn2:s         
                  13:mn2:b         13:mn3:s         13:mn3:b         14:mn2:s         
                  14:mn2:b         14:mn3:s         14:mn3:b         15:mn2:s         
                  15:mn2:b         15:mn3:s         15:mn3:b         16:mn2:s         
                  16:mn2:b         16:mn3:s         16:mn3:b         17:mn2:s         
                  17:mn2:b         17:mn3:s         17:mn3:b         18:mn2:s         
                  18:mn2:b         18:mn3:s         18:mn3:b         19:mn2:s         
                  19:mn2:b         19:mn3:s         19:mn3:b         20:mn2:s         
                  20:mn2:b         20:mn3:s         20:mn3:b         21:mn2:s         
                  21:mn2:b         21:mn3:s         21:mn3:b         22:mn2:s         
                  22:mn2:b         22:mn3:s         22:mn3:b         23:mn2:s         
                  23:mn2:b         23:mn3:s         23:mn3:b         24:mn2:s         
                  24:mn2:b         24:mn3:s         24:mn3:b         25:mn2:s         
                  25:mn2:b         25:mn3:s         25:mn3:b         26:mn2:s         
                  26:mn2:b         26:mn3:s         26:mn3:b         27:m5:g          
                  27:m6:g          27:m7:s          27:m7:b          27:m8:s          
                  27:m8:b          27:m10:s         27:m10:b         27:m13:g         
                  27:m16:s         27:m16:b         27:m17:s         27:m17:b         
                  27:m18:g         27:m18:s         27:m18:b         27:m20:s         
                  27:m20:b         27:m23:g         27:m24:g         27:m26:s         
                  27:m26:b         27:m28:s         27:m28:b         28:m5:g          
                  28:m6:g          28:m7:s          28:m7:b          28:m8:s          
                  28:m8:b          28:m10:s         28:m10:b         28:m13:g         
                  28:m16:s         28:m16:b         28:m17:s         28:m17:b         
                  28:m18:g         28:m18:s         28:m18:b         28:m20:s         
                  28:m20:b         28:m23:g         28:m24:g         28:m26:s         
                  28:m26:b         28:m28:s         28:m28:b         29:m5:g          
                  29:m6:g          29:m7:s          29:m7:b          29:m8:s          
                  29:m8:b          29:m10:s         29:m10:b         29:m13:g         
                  29:m16:s         29:m16:b         29:m17:s         29:m17:b         
                  29:m18:g         29:m18:s         29:m18:b         29:m20:s         
                  29:m20:b         29:m23:g         29:m24:g         29:m26:s         
                  29:m26:b         29:m28:s         29:m28:b         30:m5:g          
                  30:m6:g          30:m7:s          30:m7:b          30:m8:s          
                  30:m8:b          30:m10:s         30:m10:b         30:m13:g         
                  30:m16:s         30:m16:b         30:m17:s         30:m17:b         
                  30:m18:g         30:m18:s         30:m18:b         30:m20:s         
                  30:m20:b         30:m23:g         30:m24:g         30:m26:s         
                  30:m26:b         30:m28:s         30:m28:b         31:m7:s          
                  31:m7:b          31:m8:s          31:m8:b          31:m10:s         
                  31:m10:b         31:m16:s         31:m16:b         31:m17:s         
                  31:m17:b         31:m18:s         31:m18:b         31:m20:s         
                  31:m20:b         31:m26:s         31:m26:b         31:m28:s         
                  31:m28:b         32:m7:s          32:m7:b          32:m8:s          
                  32:m8:b          32:m10:s         32:m10:b         32:m16:s         
                  32:m16:b         32:m17:s         32:m17:b         32:m18:s         
                  32:m18:b         32:m20:s         32:m20:b         32:m26:s         
                  32:m26:b         32:m28:s         32:m28:b         33:m7:s          
                  33:m7:b          33:m8:s          33:m8:b          33:m10:s         
                  33:m10:b         33:m16:s         33:m16:b         33:m17:s         
                  33:m17:b         33:m18:s         33:m18:b         33:m20:s         
                  33:m20:b         33:m26:s         33:m26:b         33:m28:s         
                  33:m28:b         34:m7:s          34:m7:b          34:m8:s          
                  34:m8:b          34:m10:s         34:m10:b         34:m16:s         
                  34:m16:b         34:m17:s         34:m17:b         34:m18:s         
                  34:m18:b         34:m20:s         34:m20:b         34:m26:s         
                  34:m26:b         34:m28:s         34:m28:b         35:m7:s          
                  35:m7:b          35:m8:s          35:m8:b          35:m10:s         
                  35:m10:b         35:m16:s         35:m16:b         35:m17:s         
                  35:m17:b         35:m18:s         35:m18:b         35:m20:s         
                  35:m20:b         35:m26:s         35:m26:b         35:m28:s         
                  35:m28:b         36:m7:s          36:m7:b          36:m8:s          
                  36:m8:b          36:m10:s         36:m10:b         36:m16:s         
                  36:m16:b         36:m17:s         36:m17:b         36:m18:s         
                  36:m18:b         36:m20:s         36:m20:b         36:m26:s         
                  36:m26:b         36:m28:s         36:m28:b         37:m7:s          
                  37:m7:b          37:m8:s          37:m8:b          37:m10:s         
                  37:m10:b         37:m16:s         37:m16:b         37:m17:s         
                  37:m17:b         37:m18:s         37:m18:b         37:m20:s         
                  37:m20:b         37:m26:s         37:m26:b         37:m28:s         
                  37:m28:b         38:m7:s          38:m7:b          38:m8:s          
                  38:m8:b          38:m10:s         38:m10:b         38:m16:s         
                  38:m16:b         38:m17:s         38:m17:b         38:m18:s         
                  38:m18:b         38:m20:s         38:m20:b         38:m26:s         
                  38:m26:b         38:m28:s         38:m28:b         39:m7:s          
                  39:m7:b          39:m8:s          39:m8:b          39:m10:s         
                  39:m10:b         39:m16:s         39:m16:b         39:m17:s         
                  39:m17:b         39:m18:s         39:m18:b         39:m20:s         
                  39:m20:b         39:m26:s         39:m26:b         39:m28:s         
                  39:m28:b         40:m7:s          40:m7:b          40:m8:s          
                  40:m8:b          40:m10:s         40:m10:b         40:m16:s         
                  40:m16:b         40:m17:s         40:m17:b         40:m18:s         
                  40:m18:b         40:m20:s         40:m20:b         40:m26:s         
                  40:m26:b         40:m28:s         40:m28:b         41:m7:s          
                  41:m7:b          41:m8:s          41:m8:b          41:m10:s         
                  41:m10:b         41:m16:s         41:m16:b         41:m17:s         
                  41:m17:b         41:m18:s         41:m18:b         41:m20:s         
                  41:m20:b         41:m26:s         41:m26:b         41:m28:s         
                  41:m28:b         42:m7:s          42:m7:b          42:m8:s          
                  42:m8:b          42:m10:s         42:m10:b         42:m16:s         
                  42:m16:b         42:m17:s         42:m17:b         42:m18:s         
                  42:m18:b         42:m20:s         42:m20:b         42:m26:s         
                  42:m26:b         42:m28:s         42:m28:b         43:m5:g          
                  43:m6:g          43:m7:s          43:m7:b          43:m8:s          
                  43:m8:b          43:m10:s         43:m10:b         43:m13:g         
                  43:m16:s         43:m16:b         43:m17:s         43:m17:b         
                  43:m18:g         43:m18:s         43:m18:b         43:m20:s         
                  43:m20:b         43:m23:g         43:m24:g         43:m26:s         
                  43:m26:b         43:m28:s         43:m28:b         44:m7:s          
                  44:m7:b          44:m8:s          44:m8:b          44:m10:s         
                  44:m10:b         44:m16:s         44:m16:b         44:m17:s         
                  44:m17:b         44:m18:s         44:m18:b         44:m20:s         
                  44:m20:b         44:m26:s         44:m26:b         44:m28:s         
                  44:m28:b         45:m7:s          45:m7:b          45:m8:s          
                  45:m8:b          45:m10:s         45:m10:b         45:m16:s         
                  45:m16:b         45:m17:s         45:m17:b         45:m18:s         
                  45:m18:b         45:m20:s         45:m20:b         45:m26:s         
                  45:m26:b         45:m28:s         45:m28:b         46:m7:s          
                  46:m7:b          46:m8:s          46:m8:b          46:m10:s         
                  46:m10:b         46:m16:s         46:m16:b         46:m17:s         
                  46:m17:b         46:m18:s         46:m18:b         46:m20:s         
                  46:m20:b         46:m26:s         46:m26:b         46:m28:s         
                  46:m28:b                                                            
 a0               va0              2:mp1:g          2:mn1:g          10:mp1:g         
                  10:mn1:g         15:mp1:g         15:mn1:g         20:mp1:g         
                  20:mn1:g         25:mp1:g         25:mn1:g                          
 a1               va1              6:mp1:g          6:mn1:g          9:mp1:g          
                  9:mn1:g          14:mp1:g         14:mn1:g         19:mp1:g         
                  19:mn1:g         24:mp1:g         24:mn1:g                          
 a2               va2              5:mp1:g          5:mn1:g          8:mp1:g          
                  8:mn1:g          13:mp1:g         13:mn1:g         18:mp1:g         
                  18:mn1:g         23:mp1:g         23:mn1:g                          
 a3               va3              4:mp1:g          4:mn1:g          7:mp1:g          
                  7:mn1:g          12:mp1:g         12:mn1:g         17:mp1:g         
                  17:mn1:g         22:mp1:g         22:mn1:g                          
 a4               va4              3:mp1:g          3:mn1:g          11:mp1:g         
                  11:mn1:g         16:mp1:g         16:mn1:g         21:mp1:g         
                  21:mn1:g         26:mp1:g         26:mn1:g                          
 p0               2:mp3:d          2:mn3:d                                            
 p1               30:m27:d         30:m28:d                                           
 p2               34:m27:d         34:m28:d                                           
 p3               38:m27:d         38:m28:d                                           
 p4               42:m27:d         42:m28:d                                           
 p5               43:m27:d         43:m28:d                                           
 p6               44:m27:d         44:m28:d                                           
 p7               45:m27:d         45:m28:d                                           
 p8               46:m27:d         46:m28:d                                           
 p9               46:m19:d         46:m20:d                                           
 vdd              vdd              2:mp1:s          2:mp1:b          2:mp2:s          
                  2:mp2:b          2:mp3:s          2:mp3:b          3:mp1:s          
                  3:mp1:b          3:mp2:s          3:mp2:b          3:mp3:s          
                  3:mp3:b          4:mp1:s          4:mp1:b          4:mp2:s          
                  4:mp2:b          4:mp3:s          4:mp3:b          5:mp1:s          
                  5:mp1:b          5:mp2:s          5:mp2:b          5:mp3:s          
                  5:mp3:b          6:mp1:s          6:mp1:b          6:mp2:s          
                  6:mp2:b          6:mp3:s          6:mp3:b          7:mp1:s          
                  7:mp1:b          7:mp2:s          7:mp2:b          7:mp3:s          
                  7:mp3:b          8:mp1:s          8:mp1:b          8:mp2:s          
                  8:mp2:b          8:mp3:s          8:mp3:b          9:mp1:s          
                  9:mp1:b          9:mp2:s          9:mp2:b          9:mp3:s          
                  9:mp3:b          10:mp1:s         10:mp1:b         10:mp2:s         
                  10:mp2:b         10:mp3:s         10:mp3:b         11:mp1:s         
                  11:mp1:b         11:mp2:s         11:mp2:b         11:mp3:s         
                  11:mp3:b         12:mp1:s         12:mp1:b         12:mp2:s         
                  12:mp2:b         12:mp3:s         12:mp3:b         13:mp1:s         
                  13:mp1:b         13:mp2:s         13:mp2:b         13:mp3:s         
                  13:mp3:b         14:mp1:s         14:mp1:b         14:mp2:s         
                  14:mp2:b         14:mp3:s         14:mp3:b         15:mp1:s         
                  15:mp1:b         15:mp2:s         15:mp2:b         15:mp3:s         
                  15:mp3:b         16:mp1:s         16:mp1:b         16:mp2:s         
                  16:mp2:b         16:mp3:s         16:mp3:b         17:mp1:s         
                  17:mp1:b         17:mp2:s         17:mp2:b         17:mp3:s         
                  17:mp3:b         18:mp1:s         18:mp1:b         18:mp2:s         
                  18:mp2:b         18:mp3:s         18:mp3:b         19:mp1:s         
                  19:mp1:b         19:mp2:s         19:mp2:b         19:mp3:s         
                  19:mp3:b         20:mp1:s         20:mp1:b         20:mp2:s         
                  20:mp2:b         20:mp3:s         20:mp3:b         21:mp1:s         
                  21:mp1:b         21:mp2:s         21:mp2:b         21:mp3:s         
                  21:mp3:b         22:mp1:s         22:mp1:b         22:mp2:s         
                  22:mp2:b         22:mp3:s         22:mp3:b         23:mp1:s         
                  23:mp1:b         23:mp2:s         23:mp2:b         23:mp3:s         
                  23:mp3:b         24:mp1:s         24:mp1:b         24:mp2:s         
                  24:mp2:b         24:mp3:s         24:mp3:b         25:mp1:s         
                  25:mp1:b         25:mp2:s         25:mp2:b         25:mp3:s         
                  25:mp3:b         26:mp1:s         26:mp1:b         26:mp2:s         
                  26:mp2:b         26:mp3:s         26:mp3:b         27:m1:s          
                  27:m1:b          27:m2:s          27:m2:b          27:m3:s          
                  27:m3:b          27:m11:s         27:m11:b         27:m12:s         
                  27:m12:b         27:m13:s         27:m13:b         27:m19:s         
                  27:m19:b         27:m21:s         27:m21:b         27:m27:s         
                  27:m27:b         28:m1:s          28:m1:b          28:m2:s          
                  28:m2:b          28:m3:s          28:m3:b          28:m11:s         
                  28:m11:b         28:m12:s         28:m12:b         28:m13:s         
                  28:m13:b         28:m19:s         28:m19:b         28:m21:s         
                  28:m21:b         28:m27:s         28:m27:b         29:m1:s          
                  29:m1:b          29:m2:s          29:m2:b          29:m3:s          
                  29:m3:b          29:m11:s         29:m11:b         29:m12:s         
                  29:m12:b         29:m13:s         29:m13:b         29:m19:s         
                  29:m19:b         29:m21:s         29:m21:b         29:m27:s         
                  29:m27:b         30:m1:s          30:m1:b          30:m2:s          
                  30:m2:b          30:m3:s          30:m3:b          30:m11:s         
                  30:m11:b         30:m12:s         30:m12:b         30:m13:s         
                  30:m13:b         30:m19:s         30:m19:b         30:m21:s         
                  30:m21:b         30:m27:s         30:m27:b         31:m1:s          
                  31:m1:b          31:m2:s          31:m2:b          31:m3:s          
                  31:m3:b          31:m11:s         31:m11:b         31:m12:s         
                  31:m12:b         31:m13:s         31:m13:b         31:m19:s         
                  31:m19:b         31:m21:s         31:m21:b         31:m27:s         
                  31:m27:b         32:m1:s          32:m1:b          32:m2:s          
                  32:m2:b          32:m3:s          32:m3:b          32:m11:s         
                  32:m11:b         32:m12:s         32:m12:b         32:m13:s         
                  32:m13:b         32:m19:s         32:m19:b         32:m21:s         
                  32:m21:b         32:m27:s         32:m27:b         33:m1:s          
                  33:m1:b          33:m2:s          33:m2:b          33:m3:s          
                  33:m3:b          33:m11:s         33:m11:b         33:m12:s         
                  33:m12:b         33:m13:s         33:m13:b         33:m19:s         
                  33:m19:b         33:m21:s         33:m21:b         33:m27:s         
                  33:m27:b         34:m1:s          34:m1:b          34:m2:s          
                  34:m2:b          34:m3:s          34:m3:b          34:m11:s         
                  34:m11:b         34:m12:s         34:m12:b         34:m13:s         
                  34:m13:b         34:m19:s         34:m19:b         34:m21:s         
                  34:m21:b         34:m27:s         34:m27:b         35:m1:s          
                  35:m1:b          35:m2:s          35:m2:b          35:m3:s          
                  35:m3:b          35:m11:s         35:m11:b         35:m12:s         
                  35:m12:b         35:m13:s         35:m13:b         35:m19:s         
                  35:m19:b         35:m21:s         35:m21:b         35:m27:s         
                  35:m27:b         36:m1:s          36:m1:b          36:m2:s          
                  36:m2:b          36:m3:s          36:m3:b          36:m11:s         
                  36:m11:b         36:m12:s         36:m12:b         36:m13:s         
                  36:m13:b         36:m19:s         36:m19:b         36:m21:s         
                  36:m21:b         36:m27:s         36:m27:b         37:m1:s          
                  37:m1:b          37:m2:s          37:m2:b          37:m3:s          
                  37:m3:b          37:m11:s         37:m11:b         37:m12:s         
                  37:m12:b         37:m13:s         37:m13:b         37:m19:s         
                  37:m19:b         37:m21:s         37:m21:b         37:m27:s         
                  37:m27:b         38:m1:s          38:m1:b          38:m2:s          
                  38:m2:b          38:m3:s          38:m3:b          38:m11:s         
                  38:m11:b         38:m12:s         38:m12:b         38:m13:s         
                  38:m13:b         38:m19:s         38:m19:b         38:m21:s         
                  38:m21:b         38:m27:s         38:m27:b         39:m1:s          
                  39:m1:b          39:m2:s          39:m2:b          39:m3:s          
                  39:m3:b          39:m11:s         39:m11:b         39:m12:s         
                  39:m12:b         39:m13:s         39:m13:b         39:m19:s         
                  39:m19:b         39:m21:s         39:m21:b         39:m27:s         
                  39:m27:b         40:m1:s          40:m1:b          40:m2:s          
                  40:m2:b          40:m3:s          40:m3:b          40:m11:s         
                  40:m11:b         40:m12:s         40:m12:b         40:m13:s         
                  40:m13:b         40:m19:s         40:m19:b         40:m21:s         
                  40:m21:b         40:m27:s         40:m27:b         41:m1:s          
                  41:m1:b          41:m2:s          41:m2:b          41:m3:s          
                  41:m3:b          41:m11:s         41:m11:b         41:m12:s         
                  41:m12:b         41:m13:s         41:m13:b         41:m19:s         
                  41:m19:b         41:m21:s         41:m21:b         41:m27:s         
                  41:m27:b         42:m1:s          42:m1:b          42:m2:s          
                  42:m2:b          42:m3:s          42:m3:b          42:m11:s         
                  42:m11:b         42:m12:s         42:m12:b         42:m13:s         
                  42:m13:b         42:m19:s         42:m19:b         42:m21:s         
                  42:m21:b         42:m27:s         42:m27:b         43:m1:s          
                  43:m1:b          43:m2:s          43:m2:b          43:m3:s          
                  43:m3:b          43:m11:s         43:m11:b         43:m12:s         
                  43:m12:b         43:m13:s         43:m13:b         43:m19:s         
                  43:m19:b         43:m21:s         43:m21:b         43:m27:s         
                  43:m27:b         44:m1:s          44:m1:b          44:m2:s          
                  44:m2:b          44:m3:s          44:m3:b          44:m11:s         
                  44:m11:b         44:m12:s         44:m12:b         44:m13:s         
                  44:m13:b         44:m19:s         44:m19:b         44:m21:s         
                  44:m21:b         44:m27:s         44:m27:b         45:m1:s          
                  45:m1:b          45:m2:s          45:m2:b          45:m3:s          
                  45:m3:b          45:m11:s         45:m11:b         45:m12:s         
                  45:m12:b         45:m13:s         45:m13:b         45:m19:s         
                  45:m19:b         45:m21:s         45:m21:b         45:m27:s         
                  45:m27:b         46:m1:s          46:m1:b          46:m2:s          
                  46:m2:b          46:m3:s          46:m3:b          46:m11:s         
                  46:m11:b         46:m12:s         46:m12:b         46:m13:s         
                  46:m13:b         46:m19:s         46:m19:b         46:m21:s         
                  46:m21:b         46:m27:s         46:m27:b                          
 x0               vx0              2:mp2:g          2:mn2:g          3:mp2:g          
                  3:mn2:g          4:mp2:g          4:mn2:g          5:mp2:g          
                  5:mn2:g          6:mp2:g          6:mn2:g                           
 x1               vx1              7:mp2:g          7:mn2:g          8:mp2:g          
                  8:mn2:g          9:mp2:g          9:mn2:g          10:mp2:g         
                  10:mn2:g         11:mp2:g         11:mn2:g                          
 x2               vx2              12:mp2:g         12:mn2:g         13:mp2:g         
                  13:mn2:g         14:mp2:g         14:mn2:g         15:mp2:g         
                  15:mn2:g         16:mp2:g         16:mn2:g                          
 x3               vx3              17:mp2:g         17:mn2:g         18:mp2:g         
                  18:mn2:g         19:mp2:g         19:mn2:g         20:mp2:g         
                  20:mn2:g         21:mp2:g         21:mn2:g                          
 x4               vx4              22:mp2:g         22:mn2:g         23:mp2:g         
                  23:mn2:g         24:mp2:g         24:mn2:g         25:mp2:g         
                  25:mn2:g         26:mp2:g         26:mn2:g                          
 xmultiplier.m1   27:m19:d         27:m20:d         31:m5:g          31:m6:g          
                  31:m13:g         31:m18:g         31:m23:g         31:m24:g         
 xmultiplier.m10  36:m19:d         36:m20:d         40:m5:g          40:m6:g          
                  40:m13:g         40:m18:g         40:m23:g         40:m24:g         
 xmultiplier.m11  37:m19:d         37:m20:d         41:m5:g          41:m6:g          
                  41:m13:g         41:m18:g         41:m23:g         41:m24:g         
 xmultiplier.m12  38:m19:d         38:m20:d         42:m5:g          42:m6:g          
                  42:m13:g         42:m18:g         42:m23:g         42:m24:g         
 xmultiplier.m13  39:m19:d         39:m20:d         46:m2:g          46:m3:g          
                  46:m8:g          46:m10:g         46:m12:g         46:m17:g         
                  46:m22:g         46:m26:g                                           
 xmultiplier.m14  40:m19:d         40:m20:d         45:m2:g          45:m3:g          
                  45:m8:g          45:m10:g         45:m12:g         45:m17:g         
                  45:m22:g         45:m26:g                                           
 xmultiplier.m15  41:m19:d         41:m20:d         44:m2:g          44:m3:g          
                  44:m8:g          44:m10:g         44:m12:g         44:m17:g         
                  44:m22:g         44:m26:g                                           
 xmultiplier.m16  42:m19:d         42:m20:d         43:m2:g          43:m3:g          
                  43:m8:g          43:m10:g         43:m12:g         43:m17:g         
                  43:m22:g         43:m26:g                                           
 xmultiplier.m2   28:m19:d         28:m20:d         32:m5:g          32:m6:g          
                  32:m13:g         32:m18:g         32:m23:g         32:m24:g         
 xmultiplier.m3   29:m19:d         29:m20:d         33:m5:g          33:m6:g          
                  33:m13:g         33:m18:g         33:m23:g         33:m24:g         
 xmultiplier.m4   30:m19:d         30:m20:d         34:m5:g          34:m6:g          
                  34:m13:g         34:m18:g         34:m23:g         34:m24:g         
 xmultiplier.m5   31:m19:d         31:m20:d         35:m5:g          35:m6:g          
                  35:m13:g         35:m18:g         35:m23:g         35:m24:g         
 xmultiplier.m6   32:m19:d         32:m20:d         36:m5:g          36:m6:g          
                  36:m13:g         36:m18:g         36:m23:g         36:m24:g         
 xmultiplier.m7   33:m19:d         33:m20:d         37:m5:g          37:m6:g          
                  37:m13:g         37:m18:g         37:m23:g         37:m24:g         
 xmultiplier.m8   34:m19:d         34:m20:d         38:m5:g          38:m6:g          
                  38:m13:g         38:m18:g         38:m23:g         38:m24:g         
 xmultiplier.m9   35:m19:d         35:m20:d         39:m5:g          39:m6:g          
                  39:m13:g         39:m18:g         39:m23:g         39:m24:g         
 xmultiplier.n1   3:mp3:d          3:mn3:d          27:m2:g          27:m3:g          
                  27:m8:g          27:m10:g         27:m12:g         27:m17:g         
                  27:m22:g         27:m26:g                                           
 xmultiplier.n10  12:mp3:d         12:mn3:d         31:m1:g          31:m4:g          
                  31:m7:g          31:m9:g          31:m11:g         31:m16:g         
                  31:m21:g         31:m25:g                                           
 xmultiplier.n11  13:mp3:d         13:mn3:d         32:m1:g          32:m4:g          
                  32:m7:g          32:m9:g          32:m11:g         32:m16:g         
                  32:m21:g         32:m25:g                                           
 xmultiplier.n12  14:mp3:d         14:mn3:d         33:m1:g          33:m4:g          
                  33:m7:g          33:m9:g          33:m11:g         33:m16:g         
                  33:m21:g         33:m25:g                                           
 xmultiplier.n13  15:mp3:d         15:mn3:d         34:m1:g          34:m4:g          
                  34:m7:g          34:m9:g          34:m11:g         34:m16:g         
                  34:m21:g         34:m25:g                                           
 xmultiplier.n14  16:mp3:d         16:mn3:d         35:m2:g          35:m3:g          
                  35:m8:g          35:m10:g         35:m12:g         35:m17:g         
                  35:m22:g         35:m26:g                                           
 xmultiplier.n15  17:mp3:d         17:mn3:d         35:m1:g          35:m4:g          
                  35:m7:g          35:m9:g          35:m11:g         35:m16:g         
                  35:m21:g         35:m25:g                                           
 xmultiplier.n16  18:mp3:d         18:mn3:d         36:m1:g          36:m4:g          
                  36:m7:g          36:m9:g          36:m11:g         36:m16:g         
                  36:m21:g         36:m25:g                                           
 xmultiplier.n17  19:mp3:d         19:mn3:d         37:m1:g          37:m4:g          
                  37:m7:g          37:m9:g          37:m11:g         37:m16:g         
                  37:m21:g         37:m25:g                                           
 xmultiplier.n18  20:mp3:d         20:mn3:d         38:m1:g          38:m4:g          
                  38:m7:g          38:m9:g          38:m11:g         38:m16:g         
                  38:m21:g         38:m25:g                                           
 xmultiplier.n19  21:mp3:d         21:mn3:d         39:m2:g          39:m3:g          
                  39:m8:g          39:m10:g         39:m12:g         39:m17:g         
                  39:m22:g         39:m26:g                                           
 xmultiplier.n2   4:mp3:d          4:mn3:d          28:m2:g          28:m3:g          
                  28:m8:g          28:m10:g         28:m12:g         28:m17:g         
                  28:m22:g         28:m26:g                                           
 xmultiplier.n20  22:mp3:d         22:mn3:d         39:m1:g          39:m4:g          
                  39:m7:g          39:m9:g          39:m11:g         39:m16:g         
                  39:m21:g         39:m25:g                                           
 xmultiplier.n21  23:mp3:d         23:mn3:d         40:m1:g          40:m4:g          
                  40:m7:g          40:m9:g          40:m11:g         40:m16:g         
                  40:m21:g         40:m25:g                                           
 xmultiplier.n22  24:mp3:d         24:mn3:d         41:m1:g          41:m4:g          
                  41:m7:g          41:m9:g          41:m11:g         41:m16:g         
                  41:m21:g         41:m25:g                                           
 xmultiplier.n23  25:mp3:d         25:mn3:d         42:m1:g          42:m4:g          
                  42:m7:g          42:m9:g          42:m11:g         42:m16:g         
                  42:m21:g         42:m25:g                                           
 xmultiplier.n24  26:mp3:d         26:mn3:d         46:m1:g          46:m4:g          
                  46:m7:g          46:m9:g          46:m11:g         46:m16:g         
                  46:m21:g         46:m25:g                                           
 xmultiplier.n25  43:m19:d         43:m20:d         44:m5:g          44:m6:g          
                  44:m13:g         44:m18:g         44:m23:g         44:m24:g         
 xmultiplier.n26  44:m19:d         44:m20:d         45:m5:g          45:m6:g          
                  45:m13:g         45:m18:g         45:m23:g         45:m24:g         
 xmultiplier.n27  45:m19:d         45:m20:d         46:m5:g          46:m6:g          
                  46:m13:g         46:m18:g         46:m23:g         46:m24:g         
 xmultiplier.n3   5:mp3:d          5:mn3:d          29:m2:g          29:m3:g          
                  29:m8:g          29:m10:g         29:m12:g         29:m17:g         
                  29:m22:g         29:m26:g                                           
 xmultiplier.n4   6:mp3:d          6:mn3:d          30:m2:g          30:m3:g          
                  30:m8:g          30:m10:g         30:m12:g         30:m17:g         
                  30:m22:g         30:m26:g                                           
 xmultiplier.n5   7:mp3:d          7:mn3:d          27:m1:g          27:m4:g          
                  27:m7:g          27:m9:g          27:m11:g         27:m16:g         
                  27:m21:g         27:m25:g                                           
 xmultiplier.n6   8:mp3:d          8:mn3:d          28:m1:g          28:m4:g          
                  28:m7:g          28:m9:g          28:m11:g         28:m16:g         
                  28:m21:g         28:m25:g                                           
 xmultiplier.n7   9:mp3:d          9:mn3:d          29:m1:g          29:m4:g          
                  29:m7:g          29:m9:g          29:m11:g         29:m16:g         
                  29:m21:g         29:m25:g                                           
 xmultiplier.n8   10:mp3:d         10:mn3:d         30:m1:g          30:m4:g          
                  30:m7:g          30:m9:g          30:m11:g         30:m16:g         
                  30:m21:g         30:m25:g                                           
 xmultiplier.n9   11:mp3:d         11:mn3:d         31:m2:g          31:m3:g          
                  31:m8:g          31:m10:g         31:m12:g         31:m17:g         
                  31:m22:g         31:m26:g                                           
 xmultiplier.s1   27:m27:d         27:m28:d         32:m2:g          32:m3:g          
                  32:m8:g          32:m10:g         32:m12:g         32:m17:g         
                  32:m22:g         32:m26:g                                           
 xmultiplier.s10  39:m27:d         39:m28:d         45:m1:g          45:m4:g          
                  45:m7:g          45:m9:g          45:m11:g         45:m16:g         
                  45:m21:g         45:m25:g                                           
 xmultiplier.s11  40:m27:d         40:m28:d         44:m1:g          44:m4:g          
                  44:m7:g          44:m9:g          44:m11:g         44:m16:g         
                  44:m21:g         44:m25:g                                           
 xmultiplier.s12  41:m27:d         41:m28:d         43:m1:g          43:m4:g          
                  43:m7:g          43:m9:g          43:m11:g         43:m16:g         
                  43:m21:g         43:m25:g                                           
 xmultiplier.s2   28:m27:d         28:m28:d         33:m2:g          33:m3:g          
                  33:m8:g          33:m10:g         33:m12:g         33:m17:g         
                  33:m22:g         33:m26:g                                           
 xmultiplier.s3   29:m27:d         29:m28:d         34:m2:g          34:m3:g          
                  34:m8:g          34:m10:g         34:m12:g         34:m17:g         
                  34:m22:g         34:m26:g                                           
 xmultiplier.s4   31:m27:d         31:m28:d         36:m2:g          36:m3:g          
                  36:m8:g          36:m10:g         36:m12:g         36:m17:g         
                  36:m22:g         36:m26:g                                           
 xmultiplier.s5   32:m27:d         32:m28:d         37:m2:g          37:m3:g          
                  37:m8:g          37:m10:g         37:m12:g         37:m17:g         
                  37:m22:g         37:m26:g                                           
 xmultiplier.s6   33:m27:d         33:m28:d         38:m2:g          38:m3:g          
                  38:m8:g          38:m10:g         38:m12:g         38:m17:g         
                  38:m22:g         38:m26:g                                           
 xmultiplier.s7   35:m27:d         35:m28:d         40:m2:g          40:m3:g          
                  40:m8:g          40:m10:g         40:m12:g         40:m17:g         
                  40:m22:g         40:m26:g                                           
 xmultiplier.s8   36:m27:d         36:m28:d         41:m2:g          41:m3:g          
                  41:m8:g          41:m10:g         41:m12:g         41:m17:g         
                  41:m22:g         41:m26:g                                           
 xmultiplier.s9   37:m27:d         37:m28:d         42:m2:g          42:m3:g          
                  42:m8:g          42:m10:g         42:m12:g         42:m17:g         
                  42:m22:g         42:m26:g                                           
 2:out3!          2:mp1:d          2:mp2:d          2:mn1:d          2:mp3:g          
                  2:mn3:g                                                             
 2:s              2:mn1:s          2:mn1:b          2:mn2:d                           
 3:out3!          3:mp1:d          3:mp2:d          3:mn1:d          3:mp3:g          
                  3:mn3:g                                                             
 3:s              3:mn1:s          3:mn1:b          3:mn2:d                           
 4:out3!          4:mp1:d          4:mp2:d          4:mn1:d          4:mp3:g          
                  4:mn3:g                                                             
 4:s              4:mn1:s          4:mn1:b          4:mn2:d                           
 5:out3!          5:mp1:d          5:mp2:d          5:mn1:d          5:mp3:g          
                  5:mn3:g                                                             
 5:s              5:mn1:s          5:mn1:b          5:mn2:d                           
 6:out3!          6:mp1:d          6:mp2:d          6:mn1:d          6:mp3:g          
                  6:mn3:g                                                             
 6:s              6:mn1:s          6:mn1:b          6:mn2:d                           
 7:out3!          7:mp1:d          7:mp2:d          7:mn1:d          7:mp3:g          
                  7:mn3:g                                                             
 7:s              7:mn1:s          7:mn1:b          7:mn2:d                           
 8:out3!          8:mp1:d          8:mp2:d          8:mn1:d          8:mp3:g          
                  8:mn3:g                                                             
 8:s              8:mn1:s          8:mn1:b          8:mn2:d                           
 9:out3!          9:mp1:d          9:mp2:d          9:mn1:d          9:mp3:g          
                  9:mn3:g                                                             
 9:s              9:mn1:s          9:mn1:b          9:mn2:d                           
 10:out3!         10:mp1:d         10:mp2:d         10:mn1:d         10:mp3:g         
                  10:mn3:g                                                            
 10:s             10:mn1:s         10:mn1:b         10:mn2:d                          
 11:out3!         11:mp1:d         11:mp2:d         11:mn1:d         11:mp3:g         
                  11:mn3:g                                                            
 11:s             11:mn1:s         11:mn1:b         11:mn2:d                          
 12:out3!         12:mp1:d         12:mp2:d         12:mn1:d         12:mp3:g         
                  12:mn3:g                                                            
 12:s             12:mn1:s         12:mn1:b         12:mn2:d                          
 13:out3!         13:mp1:d         13:mp2:d         13:mn1:d         13:mp3:g         
                  13:mn3:g                                                            
 13:s             13:mn1:s         13:mn1:b         13:mn2:d                          
 14:out3!         14:mp1:d         14:mp2:d         14:mn1:d         14:mp3:g         
                  14:mn3:g                                                            
 14:s             14:mn1:s         14:mn1:b         14:mn2:d                          
 15:out3!         15:mp1:d         15:mp2:d         15:mn1:d         15:mp3:g         
                  15:mn3:g                                                            
 15:s             15:mn1:s         15:mn1:b         15:mn2:d                          
 16:out3!         16:mp1:d         16:mp2:d         16:mn1:d         16:mp3:g         
                  16:mn3:g                                                            
 16:s             16:mn1:s         16:mn1:b         16:mn2:d                          
 17:out3!         17:mp1:d         17:mp2:d         17:mn1:d         17:mp3:g         
                  17:mn3:g                                                            
 17:s             17:mn1:s         17:mn1:b         17:mn2:d                          
 18:out3!         18:mp1:d         18:mp2:d         18:mn1:d         18:mp3:g         
                  18:mn3:g                                                            
 18:s             18:mn1:s         18:mn1:b         18:mn2:d                          
 19:out3!         19:mp1:d         19:mp2:d         19:mn1:d         19:mp3:g         
                  19:mn3:g                                                            
 19:s             19:mn1:s         19:mn1:b         19:mn2:d                          
 20:out3!         20:mp1:d         20:mp2:d         20:mn1:d         20:mp3:g         
                  20:mn3:g                                                            
 20:s             20:mn1:s         20:mn1:b         20:mn2:d                          
 21:out3!         21:mp1:d         21:mp2:d         21:mn1:d         21:mp3:g         
                  21:mn3:g                                                            
 21:s             21:mn1:s         21:mn1:b         21:mn2:d                          
 22:out3!         22:mp1:d         22:mp2:d         22:mn1:d         22:mp3:g         
                  22:mn3:g                                                            
 22:s             22:mn1:s         22:mn1:b         22:mn2:d                          
 23:out3!         23:mp1:d         23:mp2:d         23:mn1:d         23:mp3:g         
                  23:mn3:g                                                            
 23:s             23:mn1:s         23:mn1:b         23:mn2:d                          
 24:out3!         24:mp1:d         24:mp2:d         24:mn1:d         24:mp3:g         
                  24:mn3:g                                                            
 24:s             24:mn1:s         24:mn1:b         24:mn2:d                          
 25:out3!         25:mp1:d         25:mp2:d         25:mn1:d         25:mp3:g         
                  25:mn3:g                                                            
 25:s             25:mn1:s         25:mn1:b         25:mn2:d                          
 26:out3!         26:mp1:d         26:mp2:d         26:mn1:d         26:mp3:g         
                  26:mn3:g                                                            
 26:s             26:mn1:s         26:mn1:b         26:mn2:d                          
 27:co!           27:m4:d          27:m5:d          27:m6:d          27:m9:d          
                  27:m14:g         27:m15:g         27:m19:g         27:m20:g         
 27:s!            27:m14:d         27:m15:d         27:m23:d         27:m24:d         
                  27:m27:g         27:m28:g                                           
 27:x1            27:m1:d          27:m2:d          27:m5:s          27:m5:b          
 27:x10           27:m25:s         27:m25:b         27:m26:d                          
 27:x2            27:m6:s          27:m6:b          27:m7:d          27:m8:d          
 27:x3            27:m3:d          27:m4:s          27:m4:b                           
 27:x4            27:m9:s          27:m9:b          27:m10:d                          
 27:x5            27:m11:d         27:m12:d         27:m13:d         27:m14:s         
                  27:m14:b                                                            
 27:x6            27:m15:s         27:m15:b         27:m16:d         27:m17:d         
                  27:m18:d                                                            
 27:x7            27:m21:d         27:m22:s         27:m22:b                          
 27:x8            27:m22:d         27:m23:s         27:m23:b                          
 27:x9            27:m24:s         27:m24:b         27:m25:d                          
 28:co!           28:m4:d          28:m5:d          28:m6:d          28:m9:d          
                  28:m14:g         28:m15:g         28:m19:g         28:m20:g         
 28:s!            28:m14:d         28:m15:d         28:m23:d         28:m24:d         
                  28:m27:g         28:m28:g                                           
 28:x1            28:m1:d          28:m2:d          28:m5:s          28:m5:b          
 28:x10           28:m25:s         28:m25:b         28:m26:d                          
 28:x2            28:m6:s          28:m6:b          28:m7:d          28:m8:d          
 28:x3            28:m3:d          28:m4:s          28:m4:b                           
 28:x4            28:m9:s          28:m9:b          28:m10:d                          
 28:x5            28:m11:d         28:m12:d         28:m13:d         28:m14:s         
                  28:m14:b                                                            
 28:x6            28:m15:s         28:m15:b         28:m16:d         28:m17:d         
                  28:m18:d                                                            
 28:x7            28:m21:d         28:m22:s         28:m22:b                          
 28:x8            28:m22:d         28:m23:s         28:m23:b                          
 28:x9            28:m24:s         28:m24:b         28:m25:d                          
 29:co!           29:m4:d          29:m5:d          29:m6:d          29:m9:d          
                  29:m14:g         29:m15:g         29:m19:g         29:m20:g         
 29:s!            29:m14:d         29:m15:d         29:m23:d         29:m24:d         
                  29:m27:g         29:m28:g                                           
 29:x1            29:m1:d          29:m2:d          29:m5:s          29:m5:b          
 29:x10           29:m25:s         29:m25:b         29:m26:d                          
 29:x2            29:m6:s          29:m6:b          29:m7:d          29:m8:d          
 29:x3            29:m3:d          29:m4:s          29:m4:b                           
 29:x4            29:m9:s          29:m9:b          29:m10:d                          
 29:x5            29:m11:d         29:m12:d         29:m13:d         29:m14:s         
                  29:m14:b                                                            
 29:x6            29:m15:s         29:m15:b         29:m16:d         29:m17:d         
                  29:m18:d                                                            
 29:x7            29:m21:d         29:m22:s         29:m22:b                          
 29:x8            29:m22:d         29:m23:s         29:m23:b                          
 29:x9            29:m24:s         29:m24:b         29:m25:d                          
 30:co!           30:m4:d          30:m5:d          30:m6:d          30:m9:d          
                  30:m14:g         30:m15:g         30:m19:g         30:m20:g         
 30:s!            30:m14:d         30:m15:d         30:m23:d         30:m24:d         
                  30:m27:g         30:m28:g                                           
 30:x1            30:m1:d          30:m2:d          30:m5:s          30:m5:b          
 30:x10           30:m25:s         30:m25:b         30:m26:d                          
 30:x2            30:m6:s          30:m6:b          30:m7:d          30:m8:d          
 30:x3            30:m3:d          30:m4:s          30:m4:b                           
 30:x4            30:m9:s          30:m9:b          30:m10:d                          
 30:x5            30:m11:d         30:m12:d         30:m13:d         30:m14:s         
                  30:m14:b                                                            
 30:x6            30:m15:s         30:m15:b         30:m16:d         30:m17:d         
                  30:m18:d                                                            
 30:x7            30:m21:d         30:m22:s         30:m22:b                          
 30:x8            30:m22:d         30:m23:s         30:m23:b                          
 30:x9            30:m24:s         30:m24:b         30:m25:d                          
 31:co!           31:m4:d          31:m5:d          31:m6:d          31:m9:d          
                  31:m14:g         31:m15:g         31:m19:g         31:m20:g         
 31:s!            31:m14:d         31:m15:d         31:m23:d         31:m24:d         
                  31:m27:g         31:m28:g                                           
 31:x1            31:m1:d          31:m2:d          31:m5:s          31:m5:b          
 31:x10           31:m25:s         31:m25:b         31:m26:d                          
 31:x2            31:m6:s          31:m6:b          31:m7:d          31:m8:d          
 31:x3            31:m3:d          31:m4:s          31:m4:b                           
 31:x4            31:m9:s          31:m9:b          31:m10:d                          
 31:x5            31:m11:d         31:m12:d         31:m13:d         31:m14:s         
                  31:m14:b                                                            
 31:x6            31:m15:s         31:m15:b         31:m16:d         31:m17:d         
                  31:m18:d                                                            
 31:x7            31:m21:d         31:m22:s         31:m22:b                          
 31:x8            31:m22:d         31:m23:s         31:m23:b                          
 31:x9            31:m24:s         31:m24:b         31:m25:d                          
 32:co!           32:m4:d          32:m5:d          32:m6:d          32:m9:d          
                  32:m14:g         32:m15:g         32:m19:g         32:m20:g         
 32:s!            32:m14:d         32:m15:d         32:m23:d         32:m24:d         
                  32:m27:g         32:m28:g                                           
 32:x1            32:m1:d          32:m2:d          32:m5:s          32:m5:b          
 32:x10           32:m25:s         32:m25:b         32:m26:d                          
 32:x2            32:m6:s          32:m6:b          32:m7:d          32:m8:d          
 32:x3            32:m3:d          32:m4:s          32:m4:b                           
 32:x4            32:m9:s          32:m9:b          32:m10:d                          
 32:x5            32:m11:d         32:m12:d         32:m13:d         32:m14:s         
                  32:m14:b                                                            
 32:x6            32:m15:s         32:m15:b         32:m16:d         32:m17:d         
                  32:m18:d                                                            
 32:x7            32:m21:d         32:m22:s         32:m22:b                          
 32:x8            32:m22:d         32:m23:s         32:m23:b                          
 32:x9            32:m24:s         32:m24:b         32:m25:d                          
 33:co!           33:m4:d          33:m5:d          33:m6:d          33:m9:d          
                  33:m14:g         33:m15:g         33:m19:g         33:m20:g         
 33:s!            33:m14:d         33:m15:d         33:m23:d         33:m24:d         
                  33:m27:g         33:m28:g                                           
 33:x1            33:m1:d          33:m2:d          33:m5:s          33:m5:b          
 33:x10           33:m25:s         33:m25:b         33:m26:d                          
 33:x2            33:m6:s          33:m6:b          33:m7:d          33:m8:d          
 33:x3            33:m3:d          33:m4:s          33:m4:b                           
 33:x4            33:m9:s          33:m9:b          33:m10:d                          
 33:x5            33:m11:d         33:m12:d         33:m13:d         33:m14:s         
                  33:m14:b                                                            
 33:x6            33:m15:s         33:m15:b         33:m16:d         33:m17:d         
                  33:m18:d                                                            
 33:x7            33:m21:d         33:m22:s         33:m22:b                          
 33:x8            33:m22:d         33:m23:s         33:m23:b                          
 33:x9            33:m24:s         33:m24:b         33:m25:d                          
 34:co!           34:m4:d          34:m5:d          34:m6:d          34:m9:d          
                  34:m14:g         34:m15:g         34:m19:g         34:m20:g         
 34:s!            34:m14:d         34:m15:d         34:m23:d         34:m24:d         
                  34:m27:g         34:m28:g                                           
 34:x1            34:m1:d          34:m2:d          34:m5:s          34:m5:b          
 34:x10           34:m25:s         34:m25:b         34:m26:d                          
 34:x2            34:m6:s          34:m6:b          34:m7:d          34:m8:d          
 34:x3            34:m3:d          34:m4:s          34:m4:b                           
 34:x4            34:m9:s          34:m9:b          34:m10:d                          
 34:x5            34:m11:d         34:m12:d         34:m13:d         34:m14:s         
                  34:m14:b                                                            
 34:x6            34:m15:s         34:m15:b         34:m16:d         34:m17:d         
                  34:m18:d                                                            
 34:x7            34:m21:d         34:m22:s         34:m22:b                          
 34:x8            34:m22:d         34:m23:s         34:m23:b                          
 34:x9            34:m24:s         34:m24:b         34:m25:d                          
 35:co!           35:m4:d          35:m5:d          35:m6:d          35:m9:d          
                  35:m14:g         35:m15:g         35:m19:g         35:m20:g         
 35:s!            35:m14:d         35:m15:d         35:m23:d         35:m24:d         
                  35:m27:g         35:m28:g                                           
 35:x1            35:m1:d          35:m2:d          35:m5:s          35:m5:b          
 35:x10           35:m25:s         35:m25:b         35:m26:d                          
 35:x2            35:m6:s          35:m6:b          35:m7:d          35:m8:d          
 35:x3            35:m3:d          35:m4:s          35:m4:b                           
 35:x4            35:m9:s          35:m9:b          35:m10:d                          
 35:x5            35:m11:d         35:m12:d         35:m13:d         35:m14:s         
                  35:m14:b                                                            
 35:x6            35:m15:s         35:m15:b         35:m16:d         35:m17:d         
                  35:m18:d                                                            
 35:x7            35:m21:d         35:m22:s         35:m22:b                          
 35:x8            35:m22:d         35:m23:s         35:m23:b                          
 35:x9            35:m24:s         35:m24:b         35:m25:d                          
 36:co!           36:m4:d          36:m5:d          36:m6:d          36:m9:d          
                  36:m14:g         36:m15:g         36:m19:g         36:m20:g         
 36:s!            36:m14:d         36:m15:d         36:m23:d         36:m24:d         
                  36:m27:g         36:m28:g                                           
 36:x1            36:m1:d          36:m2:d          36:m5:s          36:m5:b          
 36:x10           36:m25:s         36:m25:b         36:m26:d                          
 36:x2            36:m6:s          36:m6:b          36:m7:d          36:m8:d          
 36:x3            36:m3:d          36:m4:s          36:m4:b                           
 36:x4            36:m9:s          36:m9:b          36:m10:d                          
 36:x5            36:m11:d         36:m12:d         36:m13:d         36:m14:s         
                  36:m14:b                                                            
 36:x6            36:m15:s         36:m15:b         36:m16:d         36:m17:d         
                  36:m18:d                                                            
 36:x7            36:m21:d         36:m22:s         36:m22:b                          
 36:x8            36:m22:d         36:m23:s         36:m23:b                          
 36:x9            36:m24:s         36:m24:b         36:m25:d                          
 37:co!           37:m4:d          37:m5:d          37:m6:d          37:m9:d          
                  37:m14:g         37:m15:g         37:m19:g         37:m20:g         
 37:s!            37:m14:d         37:m15:d         37:m23:d         37:m24:d         
                  37:m27:g         37:m28:g                                           
 37:x1            37:m1:d          37:m2:d          37:m5:s          37:m5:b          
 37:x10           37:m25:s         37:m25:b         37:m26:d                          
 37:x2            37:m6:s          37:m6:b          37:m7:d          37:m8:d          
 37:x3            37:m3:d          37:m4:s          37:m4:b                           
 37:x4            37:m9:s          37:m9:b          37:m10:d                          
 37:x5            37:m11:d         37:m12:d         37:m13:d         37:m14:s         
                  37:m14:b                                                            
 37:x6            37:m15:s         37:m15:b         37:m16:d         37:m17:d         
                  37:m18:d                                                            
 37:x7            37:m21:d         37:m22:s         37:m22:b                          
 37:x8            37:m22:d         37:m23:s         37:m23:b                          
 37:x9            37:m24:s         37:m24:b         37:m25:d                          
 38:co!           38:m4:d          38:m5:d          38:m6:d          38:m9:d          
                  38:m14:g         38:m15:g         38:m19:g         38:m20:g         
 38:s!            38:m14:d         38:m15:d         38:m23:d         38:m24:d         
                  38:m27:g         38:m28:g                                           
 38:x1            38:m1:d          38:m2:d          38:m5:s          38:m5:b          
 38:x10           38:m25:s         38:m25:b         38:m26:d                          
 38:x2            38:m6:s          38:m6:b          38:m7:d          38:m8:d          
 38:x3            38:m3:d          38:m4:s          38:m4:b                           
 38:x4            38:m9:s          38:m9:b          38:m10:d                          
 38:x5            38:m11:d         38:m12:d         38:m13:d         38:m14:s         
                  38:m14:b                                                            
 38:x6            38:m15:s         38:m15:b         38:m16:d         38:m17:d         
                  38:m18:d                                                            
 38:x7            38:m21:d         38:m22:s         38:m22:b                          
 38:x8            38:m22:d         38:m23:s         38:m23:b                          
 38:x9            38:m24:s         38:m24:b         38:m25:d                          
 39:co!           39:m4:d          39:m5:d          39:m6:d          39:m9:d          
                  39:m14:g         39:m15:g         39:m19:g         39:m20:g         
 39:s!            39:m14:d         39:m15:d         39:m23:d         39:m24:d         
                  39:m27:g         39:m28:g                                           
 39:x1            39:m1:d          39:m2:d          39:m5:s          39:m5:b          
[...]
                  40:m18:d                                                            
 40:x7            40:m21:d         40:m22:s         40:m22:b                          
 40:x8            40:m22:d         40:m23:s         40:m23:b                          
 40:x9            40:m24:s         40:m24:b         40:m25:d                          
 41:co!           41:m4:d          41:m5:d          41:m6:d          41:m9:d          
                  41:m14:g         41:m15:g         41:m19:g         41:m20:g         
 41:s!            41:m14:d         41:m15:d         41:m23:d         41:m24:d         
                  41:m27:g         41:m28:g                                           
 41:x1            41:m1:d          41:m2:d          41:m5:s          41:m5:b          
 41:x10           41:m25:s         41:m25:b         41:m26:d                          
 41:x2            41:m6:s          41:m6:b          41:m7:d          41:m8:d          
 41:x3            41:m3:d          41:m4:s          41:m4:b                           
 41:x4            41:m9:s          41:m9:b          41:m10:d                          
 41:x5            41:m11:d         41:m12:d         41:m13:d         41:m14:s         
                  41:m14:b                                                            
 41:x6            41:m15:s         41:m15:b         41:m16:d         41:m17:d         
                  41:m18:d                                                            
 41:x7            41:m21:d         41:m22:s         41:m22:b                          
 41:x8            41:m22:d         41:m23:s         41:m23:b                          
 41:x9            41:m24:s         41:m24:b         41:m25:d                          
 42:co!           42:m4:d          42:m5:d          42:m6:d          42:m9:d          
                  42:m14:g         42:m15:g         42:m19:g         42:m20:g         
 42:s!            42:m14:d         42:m15:d         42:m23:d         42:m24:d         
                  42:m27:g         42:m28:g                                           
 42:x1            42:m1:d          42:m2:d          42:m5:s          42:m5:b          
 42:x10           42:m25:s         42:m25:b         42:m26:d                          
 42:x2            42:m6:s          42:m6:b          42:m7:d          42:m8:d          
 42:x3            42:m3:d          42:m4:s          42:m4:b                           
 42:x4            42:m9:s          42:m9:b          42:m10:d                          
 42:x5            42:m11:d         42:m12:d         42:m13:d         42:m14:s         
                  42:m14:b                                                            
 42:x6            42:m15:s         42:m15:b         42:m16:d         42:m17:d         
                  42:m18:d                                                            
 42:x7            42:m21:d         42:m22:s         42:m22:b                          
 42:x8            42:m22:d         42:m23:s         42:m23:b                          
 42:x9            42:m24:s         42:m24:b         42:m25:d                          
 43:co!           43:m4:d          43:m5:d          43:m6:d          43:m9:d          
                  43:m14:g         43:m15:g         43:m19:g         43:m20:g         
 43:s!            43:m14:d         43:m15:d         43:m23:d         43:m24:d         
                  43:m27:g         43:m28:g                                           
 43:x1            43:m1:d          43:m2:d          43:m5:s          43:m5:b          
 43:x10           43:m25:s         43:m25:b         43:m26:d                          
 43:x2            43:m6:s          43:m6:b          43:m7:d          43:m8:d          
 43:x3            43:m3:d          43:m4:s          43:m4:b                           
 43:x4            43:m9:s          43:m9:b          43:m10:d                          
 43:x5            43:m11:d         43:m12:d         43:m13:d         43:m14:s         
                  43:m14:b                                                            
 43:x6            43:m15:s         43:m15:b         43:m16:d         43:m17:d         
                  43:m18:d                                                            
 43:x7            43:m21:d         43:m22:s         43:m22:b                          
 43:x8            43:m22:d         43:m23:s         43:m23:b                          
 43:x9            43:m24:s         43:m24:b         43:m25:d                          
 44:co!           44:m4:d          44:m5:d          44:m6:d          44:m9:d          
                  44:m14:g         44:m15:g         44:m19:g         44:m20:g         
 44:s!            44:m14:d         44:m15:d         44:m23:d         44:m24:d         
                  44:m27:g         44:m28:g                                           
 44:x1            44:m1:d          44:m2:d          44:m5:s          44:m5:b          
 44:x10           44:m25:s         44:m25:b         44:m26:d                          
 44:x2            44:m6:s          44:m6:b          44:m7:d          44:m8:d          
 44:x3            44:m3:d          44:m4:s          44:m4:b                           
 44:x4            44:m9:s          44:m9:b          44:m10:d                          
 44:x5            44:m11:d         44:m12:d         44:m13:d         44:m14:s         
                  44:m14:b                                                            
 44:x6            44:m15:s         44:m15:b         44:m16:d         44:m17:d         
                  44:m18:d                                                            
 44:x7            44:m21:d         44:m22:s         44:m22:b                          
 44:x8            44:m22:d         44:m23:s         44:m23:b                          
 44:x9            44:m24:s         44:m24:b         44:m25:d                          
 45:co!           45:m4:d          45:m5:d          45:m6:d          45:m9:d          
                  45:m14:g         45:m15:g         45:m19:g         45:m20:g         
 45:s!            45:m14:d         45:m15:d         45:m23:d         45:m24:d         
                  45:m27:g         45:m28:g                                           
 45:x1            45:m1:d          45:m2:d          45:m5:s          45:m5:b          
 45:x10           45:m25:s         45:m25:b         45:m26:d                          
 45:x2            45:m6:s          45:m6:b          45:m7:d          45:m8:d          
 45:x3            45:m3:d          45:m4:s          45:m4:b                           
 45:x4            45:m9:s          45:m9:b          45:m10:d                          
 45:x5            45:m11:d         45:m12:d         45:m13:d         45:m14:s         
                  45:m14:b                                                            
 45:x6            45:m15:s         45:m15:b         45:m16:d         45:m17:d         
                  45:m18:d                                                            
 45:x7            45:m21:d         45:m22:s         45:m22:b                          
 45:x8            45:m22:d         45:m23:s         45:m23:b                          
 45:x9            45:m24:s         45:m24:b         45:m25:d                          
 46:co!           46:m4:d          46:m5:d          46:m6:d          46:m9:d          
                  46:m14:g         46:m15:g         46:m19:g         46:m20:g         
 46:s!            46:m14:d         46:m15:d         46:m23:d         46:m24:d         
                  46:m27:g         46:m28:g                                           
 46:x1            46:m1:d          46:m2:d          46:m5:s          46:m5:b          
 46:x10           46:m25:s         46:m25:b         46:m26:d                          
 46:x2            46:m6:s          46:m6:b          46:m7:d          46:m8:d          
 46:x3            46:m3:d          46:m4:s          46:m4:b                           
 46:x4            46:m9:s          46:m9:b          46:m10:d                          
 46:x5            46:m11:d         46:m12:d         46:m13:d         46:m14:s         
                  46:m14:b                                                            
 46:x6            46:m15:s         46:m15:b         46:m16:d         46:m17:d         
                  46:m18:d                                                            
 46:x7            46:m21:d         46:m22:s         46:m22:b                          
 46:x8            46:m22:d         46:m23:s         46:m23:b                          
 46:x9            46:m24:s         46:m24:b         46:m25:d                          
 **info** set option symb=1 internally to help for convergence.
 *****************************************************************
 ******  option summary
 ******
 runlvl  = 3         bypass  = 2         
  Opening plot unit= 79
 file=mul (3).pa0

1****** HSPICE -- H-2013.03-SP2 64-BIT (Aug 26 2013) win64 ******               
 ******  
 .include 'mosistsmc180.lib'

  ******  operating point information tnom=  25.000 temp=  25.000 *****
 ***** operating point status is voltage   simulation time is     0.     
     node    =voltage       node    =voltage       node    =voltage

 + 0:a0      =   0.       0:a1      =   0.       0:a2      =   1.8000 
 + 0:a3      =   0.       0:a4      =   0.       0:p0      =  10.9921n
 + 0:p1      =  10.9922n  0:p2      =   1.8000   0:p3      =   1.8000 
 + 0:p4      =   1.8000   0:p5      =  10.9922n  0:p6      =  10.9922n
 + 0:p7      =  10.9922n  0:p8      =  10.9922n  0:p9      =  10.9920n
 + 0:vdd     =   1.8000   0:x0      =   1.8000   0:x1      =   1.8000 
 + 0:x2      =   1.8000   0:x3      =   0.       0:x4      =   0.     
 + 1:m1      =  10.9920n  1:m10     =  10.9920n  1:m11     =  10.9921n
 + 1:m12     =  10.9921n  1:m13     =  10.9920n  1:m14     =  10.9920n
 + 1:m15     =  10.9920n  1:m16     =  10.9921n  1:m2      =  10.9921n
 + 1:m3      =  10.9921n  1:m4      =  10.9920n  1:m5      =  10.9920n
 + 1:m6      =  10.9921n  1:m7      =  10.9921n  1:m8      =  10.9921n
 + 1:m9      =  10.9920n  1:n1      =  10.9921n  1:n10     =  10.9921n
 + 1:n11     =   1.8000   1:n12     =  10.9921n  1:n13     =  10.9921n
 + 1:n14     =  10.9921n  1:n15     =  10.9920n  1:n16     =  10.9921n
 + 1:n17     =  10.9920n  1:n18     =  10.9920n  1:n19     =  10.9920n
 + 1:n2      =  10.9921n  1:n20     =  10.9920n  1:n21     =  10.9921n
 + 1:n22     =  10.9920n  1:n23     =  10.9920n  1:n24     =  10.9920n
 + 1:n25     =  10.9920n  1:n26     =  10.9920n  1:n27     =  10.9920n
 + 1:n3      =   1.8000   1:n4      =  10.9921n  1:n5      =  10.9921n
 + 1:n6      =   1.8000   1:n7      =  10.9921n  1:n8      =  10.9921n
 + 1:n9      =  10.9921n  1:s1      =  10.9922n  1:s10     =  10.9922n
 + 1:s11     =  10.9922n  1:s12     =  10.9922n  1:s2      =   1.8000 
 + 1:s3      =   1.8000   1:s4      =  10.9922n  1:s5      =   1.8000 
 + 1:s6      =   1.8000   1:s7      =  10.9922n  1:s8      =  10.9922n
 + 1:s9      =   1.8000   2:out3!   =   1.8000   2:s       =  24.9293n
 + 3:out3!   =   1.8000   3:s       =  24.9293n  4:out3!   =   1.8000 
 + 4:s       =  24.9293n  5:out3!   =  43.9681n  5:s       =  21.9841n
 + 6:out3!   =   1.8000   6:s       =  24.9293n  7:out3!   =   1.8000 
 + 7:s       =  24.9293n  8:out3!   =  43.9681n  8:s       =  21.9841n
 + 9:out3!   =   1.8000   9:s       =  24.9293n 10:out3!   =   1.8000 
 +10:s       =  24.9293n 11:out3!   =   1.8000  11:s       =  24.9293n
 +12:out3!   =   1.8000  12:s       =  24.9293n 13:out3!   =  43.9681n
 +13:s       =  21.9841n 14:out3!   =   1.8000  14:s       =  24.9293n
 +15:out3!   =   1.8000  15:s       =  24.9293n 16:out3!   =   1.8000 
 +16:s       =  24.9293n 17:out3!   =   1.8000  17:s       = 113.2978m
 +18:out3!   =   1.8000  18:s       =   1.7394  19:out3!   =   1.8000 
 +19:s       = 113.2978m 20:out3!   =   1.8000  20:s       = 113.2978m
 +21:out3!   =   1.8000  21:s       = 113.2978m 22:out3!   =   1.8000 
 +22:s       = 113.2978m 23:out3!   =   1.8000  23:s       =   1.7394 
 +24:out3!   =   1.8000  24:s       = 113.2978m 25:out3!   =   1.8000 
 +25:s       = 113.2978m 26:out3!   =   1.8000  26:s       = 113.2978m
 +27:co!     =   1.8000  27:s!      =   1.8000  27:x1      =   1.8000 
 +27:x10     =  32.4497m 27:x2      =  53.7500m 27:x3      =   1.8000 
 +27:x4      = 113.2978m 27:x5      =   1.8000  27:x6      =   1.7025 
 +27:x7      =   1.8000  27:x8      =   1.8000  27:x9      = 398.3578m
 +28:co!     =   1.8000  28:s!      =  42.9829n 28:x1      =   1.8000 
 +28:x10     =  21.4914n 28:x2      =  24.9293n 28:x3      =   1.8000 
 +28:x4      =   1.7394  28:x5      =   1.8000  28:x6      =  21.4914n
 +28:x7      =  84.4569m 28:x8      =  64.5520m 28:x9      =  21.4914n
 +29:co!     =   1.8000  29:s!      =  43.2092n 29:x1      =   1.8000 
 +29:x10     =   4.2143f 29:x2      =  24.9293n 29:x3      =   1.8000 
 +29:x4      =  24.9293n 29:x5      =   1.8000  29:x6      =  21.6046n
 +29:x7      =   1.8000  29:x8      =  64.9192m 29:x9      =  21.6046n
 +30:co!     =   1.8000  30:s!      =   1.8000  30:x1      =   1.8000 
 +30:x10     =  32.4497m 30:x2      =  53.7500m 30:x3      =   1.8000 
 +30:x4      = 113.2978m 30:x5      =   1.8000  30:x6      =   1.7025 
 +30:x7      =   1.8000  30:x8      =   1.8000  30:x9      = 398.3578m
 +31:co!     =   1.8000  31:s!      =   1.8000  31:x1      =   1.8000 
 +31:x10     =  32.4497m 31:x2      =  53.7500m 31:x3      =   1.8000 
 +31:x4      = 113.2978m 31:x5      =   1.8000  31:x6      =   1.7025 
 +31:x7      =   1.8000  31:x8      =   1.8000  31:x9      = 398.3578m
 +32:co!     =   1.8000  32:s!      =  42.9829n 32:x1      =   1.8000 
 +32:x10     =  21.4914n 32:x2      =  24.9293n 32:x3      =   1.8000 
 +32:x4      =   1.7394  32:x5      =   1.8000  32:x6      =  21.4914n
 +32:x7      =  84.4570m 32:x8      =  64.5520m 32:x9      =  21.4914n
 +33:co!     =   1.8000  33:s!      =  43.2092n 33:x1      =   1.8000 
 +33:x10     =   4.2143f 33:x2      =  24.9293n 33:x3      =   1.8000 
 +33:x4      =  24.9293n 33:x5      =   1.8000  33:x6      =  21.6046n
 +33:x7      =   1.8000  33:x8      =  64.9192m 33:x9      =  21.6046n
 +34:co!     =   1.8000  34:s!      =  43.2092n 34:x1      =   1.8000 
 +34:x10     =   4.2143f 34:x2      =  24.9293n 34:x3      =   1.8000 
 +34:x4      =  24.9293n 34:x5      =   1.8000  34:x6      =  21.6046n
 +34:x7      =   1.8000  34:x8      =  64.9192m 34:x9      =  21.6046n
 +35:co!     =   1.8000  35:s!      =   1.8000  35:x1      =   1.8000 
 +35:x10     =  32.4497m 35:x2      =  53.7500m 35:x3      =   1.8000 
 +35:x4      = 113.2978m 35:x5      =   1.8000  35:x6      =   1.7025 
 +35:x7      =   1.8000  35:x8      =   1.8000  35:x9      = 398.3578m
 +36:co!     =   1.8000  36:s!      =   1.8000  36:x1      =   1.8000 
 +36:x10     =  32.4497m 36:x2      =  53.7500m 36:x3      =   1.8000 
 +36:x4      = 113.2978m 36:x5      =   1.8000  36:x6      =   1.7025 
 +36:x7      =   1.8000  36:x8      =   1.8000  36:x9      = 398.3578m
 +37:co!     =   1.8000  37:s!      =  43.2092n 37:x1      =   1.8000 
 +37:x10     =   4.2143f 37:x2      =  24.9293n 37:x3      =   1.8000 
 +37:x4      =  24.9293n 37:x5      =   1.8000  37:x6      =  21.6046n
 +37:x7      =   1.8000  37:x8      =  64.9192m 37:x9      =  21.6046n
 +38:co!     =   1.8000  38:s!      =  43.2092n 38:x1      =   1.8000 
 +38:x10     =   4.2143f 38:x2      =  24.9293n 38:x3      =   1.8000 
 +38:x4      =  24.9293n 38:x5      =   1.8000  38:x6      =  21.6046n
 +38:x7      =   1.8000  38:x8      =  64.9192m 38:x9      =  21.6046n
 +39:co!     =   1.8000  39:s!      =   1.8000  39:x1      =   1.8000 
 +39:x10     =  32.4497m 39:x2      =  53.7500m 39:x3      =   1.8000 
 +39:x4      = 113.2978m 39:x5      =   1.8000  39:x6      =   1.7025 
 +39:x7      =   1.8000  39:x8      =   1.8000  39:x9      = 398.3578m
 +40:co!     =   1.8000  40:s!      =   1.8000  40:x1      =   1.8000 
 +40:x10     =  32.4497m 40:x2      =  53.7500m 40:x3      =   1.8000 
 +40:x4      = 113.2978m 40:x5      =   1.8000  40:x6      =   1.7025 
 +40:x7      =   1.8000  40:x8      =   1.8000  40:x9      = 398.3578m
 +41:co!     =   1.8000  41:s!      =   1.8000  41:x1      =   1.8000 
 +41:x10     =  32.4497m 41:x2      =  53.7500m 41:x3      =   1.8000 
 +41:x4      = 113.2978m 41:x5      =   1.8000  41:x6      =   1.7025 
 +41:x7      =   1.8000  41:x8      =   1.8000  41:x9      = 398.3578m
 +42:co!     =   1.8000  42:s!      =  43.2092n 42:x1      =   1.8000 
 +42:x10     =   4.2143f 42:x2      =  24.9293n 42:x3      =   1.8000 
 +42:x4      =  24.9293n 42:x5      =   1.8000  42:x6      =  21.6046n
 +42:x7      =   1.8000  42:x8      =  64.9192m 42:x9      =  21.6046n
 +43:co!     =   1.8000  43:s!      =   1.8000  43:x1      =   1.8000 
 +43:x10     =  32.4497m 43:x2      =  53.7500m 43:x3      =   1.8000 
 +43:x4      = 113.2978m 43:x5      =   1.8000  43:x6      =   1.7025 
 +43:x7      =   1.8000  43:x8      =   1.8000  43:x9      = 398.3578m
 +44:co!     =   1.8000  44:s!      =   1.8000  44:x1      =   1.8000 
 +44:x10     =  32.4497m 44:x2      =  53.7500m 44:x3      =   1.8000 
 +44:x4      = 113.2978m 44:x5      =   1.8000  44:x6      =   1.7025 
 +44:x7      =   1.8000  44:x8      =   1.8000  44:x9      = 398.3578m
 +45:co!     =   1.8000  45:s!      =   1.8000  45:x1      =   1.8000 
 +45:x10     =  32.4497m 45:x2      =  53.7500m 45:x3      =   1.8000 
 +45:x4      = 113.2978m 45:x5      =   1.8000  45:x6      =   1.7025 
 +45:x7      =   1.8000  45:x8      =   1.8000  45:x9      = 398.3578m
 +46:co!     =   1.8000  46:s!      =   1.8000  46:x1      =   1.8000 
 +46:x10     =  32.4497m 46:x2      =  53.7500m 46:x3      =   1.8000 
 +46:x4      = 113.2978m 46:x5      =   1.8000  46:x6      =   1.7025 
 +46:x7      =   1.8000  46:x8      =   1.8000  46:x9      = 398.3578m


          ***** job concluded
1****** HSPICE -- H-2013.03-SP2 64-BIT (Aug 26 2013) win64 ******               
 ******  
 .include 'mosistsmc180.lib'

  ******  job statistics summary tnom=  25.000 temp=  25.000 *****

  ******  HSPICE Threads Information  ******

  Command Line Threads Count :     1
  Available CPU Count        :     4
  Actual Threads Count       :     1


  ******  Circuit Statistics  ******
  # nodes       =     367 # elements   =     721
  # resistors   =       0 # capacitors =       0 # inductors   =       0
  # mutual_inds =       0 # vccs       =       0 # vcvs        =       0
  # cccs        =       0 # ccvs       =       0 # volt_srcs   =      11
  # curr_srcs   =       0 # diodes     =       0 # bjts        =       0
  # jfets       =       0 # mosfets    =     710 # U elements  =       0
  # T elements  =       0 # W elements =       0 # B elements  =       0
  # S elements  =       0 # P elements =       0 # va device   =       0
  # vector_srcs =       0 # N elements =       0


  ******  Runtime Statistics (seconds)  ******

  analysis           time    # points   tot. iter  conv.iter
  op point           0.03           1          22
  transient          0.27        6401         386         127 rev=         3
  readin             0.02
  errchk             0.04
  setup              0.00
  output             0.00


           peak memory used         44.16 megabytes
           total cpu time            0.37 seconds
           total elapsed time        0.45 seconds
           job started at     06:41:13 01/18/2016
           job ended   at     06:41:13 01/18/2016


  lic: Release hspice token(s) 
 lic: total license checkout elapse time:        0.03(s)
